Version 4
SHEET 1 1104 680
WIRE -48 112 -80 112
WIRE 64 112 64 16
WIRE 64 112 32 112
WIRE 144 112 144 16
WIRE 144 112 128 112
WIRE 192 112 144 112
WIRE 480 112 336 112
WIRE 496 112 480 112
WIRE 672 112 576 112
WIRE 1008 112 928 112
WIRE 1008 144 1008 112
WIRE 144 160 128 160
WIRE 192 160 192 112
WIRE 480 160 480 112
WIRE 576 160 576 112
WIRE 672 160 672 112
WIRE -80 176 -80 112
WIRE 128 192 128 160
WIRE 128 192 96 192
WIRE 256 192 256 160
WIRE 336 192 336 112
WIRE 336 192 256 192
WIRE 128 224 128 192
WIRE 256 224 256 192
WIRE 480 240 480 224
WIRE 576 240 576 224
WIRE 576 240 480 240
WIRE 800 240 800 208
WIRE 800 240 576 240
WIRE 1008 240 1008 224
WIRE 1008 240 800 240
WIRE -80 272 -80 256
WIRE 192 272 192 224
WIRE 192 272 -80 272
WIRE 576 272 576 240
FLAG 96 192 0
FLAG 576 272 0
SYMBOL voltage -80 160 R0
WINDOW 3 -53 133 Left 2
WINDOW 123 0 0 Left 2
WINDOW 39 0 0 Left 2
SYMATTR InstName V1
SYMATTR Value SINE(0 170 60)
SYMBOL zener 592 224 R180
WINDOW 0 -37 33 Left 2
WINDOW 3 -142 -31 Left 2
SYMATTR InstName D3
SYMATTR Value BZX84C6V2L
SYMBOL cap 464 160 R0
WINDOW 0 -18 47 Left 2
WINDOW 3 -57 9 Left 2
SYMATTR InstName C1
SYMATTR Value 1000µ
SYMBOL cap 128 96 R90
WINDOW 0 0 32 VBottom 2
WINDOW 3 32 32 VTop 2
SYMATTR InstName C2
SYMATTR Value 0.6µ
SYMBOL res 160 0 R90
WINDOW 0 0 56 VBottom 2
WINDOW 3 32 56 VTop 2
SYMATTR InstName R2
SYMATTR Value 100k
SYMBOL res 48 96 R90
WINDOW 0 0 56 VBottom 2
WINDOW 3 32 56 VTop 2
SYMATTR InstName R3
SYMATTR Value 100
SYMBOL res 592 96 R90
WINDOW 0 0 56 VBottom 2
WINDOW 3 32 56 VTop 2
SYMATTR InstName R4
SYMATTR Value 100
SYMBOL diode 128 176 R270
WINDOW 0 31 36 VTop 2
WINDOW 3 0 32 VBottom 2
SYMATTR InstName D1
SYMBOL diode 192 176 R270
WINDOW 0 28 38 VTop 2
WINDOW 3 -1 33 VBottom 2
SYMATTR InstName D2
SYMBOL diode 192 240 R270
WINDOW 0 -11 -64 VTop 2
WINDOW 3 0 32 VBottom 2
SYMATTR InstName D4
SYMBOL diode 128 240 R270
WINDOW 0 -16 133 VTop 2
WINDOW 3 0 32 VBottom 2
SYMATTR InstName D5
SYMBOL PowerProducts\\LT1117-3.3 800 112 R0
WINDOW 0 2 51 Bottom 2
WINDOW 3 -58 -43 Left 2
SYMATTR InstName U1
SYMBOL res 992 128 R0
SYMATTR InstName R1
SYMATTR Value 500
TEXT -130 336 Left 2 !.tran 0 1 0 0.01
